Version 4
SHEET 1 880 692
WIRE 32 128 32 96
WIRE 160 128 32 128
WIRE 272 128 240 128
WIRE 336 128 272 128
WIRE 32 144 32 128
WIRE 272 192 272 128
WIRE 32 272 32 224
WIRE 272 304 272 272
WIRE 112 512 32 512
WIRE 240 512 192 512
WIRE 288 512 240 512
WIRE 240 560 240 512
WIRE 240 672 240 624
FLAG 32 96 Batt
FLAG 32 272 0
FLAG 272 304 0
FLAG 336 128 Vx
FLAG 32 512 Batt
FLAG 240 672 0
FLAG 288 512 Vz
SYMBOL voltage 32 128 R0
WINDOW 123 0 0 Left 0
WINDOW 39 0 0 Left 0
SYMATTR InstName V1
SYMATTR Value 0
SYMBOL res 256 112 R90
WINDOW 0 0 56 VBottom 2
WINDOW 3 32 56 VTop 2
SYMATTR InstName R1
SYMATTR Value 10k
SYMBOL res 288 288 R180
WINDOW 0 36 76 Left 2
WINDOW 3 36 40 Left 2
SYMATTR InstName R2
SYMATTR Value 5k
SYMBOL res 208 496 R90
WINDOW 0 0 56 VBottom 2
WINDOW 3 32 56 VTop 2
SYMATTR InstName R3
SYMATTR Value 116
SYMBOL zener 256 624 R180
WINDOW 0 24 64 Left 2
WINDOW 3 24 0 Left 2
SYMATTR InstName D1
SYMATTR Value UMZ5_1N
SYMATTR Description Diode
SYMATTR Type diode
